256

C  4.90000   8.48705   3.34500
C  4.90000   8.48705   6.69000
C  7.35000   9.90156   3.34500
C  7.35000   12.73057   3.34500
C  7.35000   12.73057  6.69000
C  4.90000   11.31607   6.69000
C  7.35000   15.55959   6.69000
C  4.90000   14.14508   3.34500
C  4.90000   16.97410   3.34500
C  4.90000   16.97410   6.69000
C  7.35000   18.38861   3.34500
C  7.35000   21.21762   3.34500
C  7.35000   21.21762  6.69000
C  4.90000   19.80311   6.69000
C  7.35000   24.04664   6.69000
C  4.90000   22.63213   3.34500
C  4.90000   25.46115   3.34500
C  4.90000   25.46115   6.69000
C  7.35000   26.87566   3.34500
C  7.35000   29.70467   3.34500
C  7.35000   29.70467  6.69000
C  4.90000   28.29016   6.69000
C  7.35000   32.53369   6.69000
C  4.90000   31.11918   3.34500
C  4.90000   33.94820   3.34500
C  4.90000   33.94820   6.69000
C  7.35000   35.36270   3.34500
C  7.35000   38.19172   3.34500
C  7.35000   38.19172  6.69000
C  4.90000   36.77721   6.69000
C  7.35000   41.02074   6.69000
C  4.90000   39.60623   3.34500
C  9.80000   8.48705   3.34500
C  9.80000   8.48705   6.69000
C  12.25000   9.90156   3.34500
C  12.25000   12.73057   3.34500
C  12.25000   12.73057  6.69000
C  9.80000   11.31607   6.69000
C  12.25000   15.55959   6.69000
C  9.80000   14.14508   3.34500
C  9.80000   16.97410   3.34500
C  9.80000   16.97410   6.69000
C  12.25000   18.38861   3.34500
C  12.25000   21.21762   3.34500
C  12.25000   21.21762  6.69000
C  9.80000   19.80311   6.69000
C  12.25000   24.04664   6.69000
C  9.80000   22.63213   3.34500
C  9.80000   25.46115   3.34500
C  9.80000   25.46115   6.69000
C  12.25000   26.87566   3.34500
C  12.25000   29.70467   3.34500
C  12.25000   29.70467  6.69000
C  9.80000   28.29016   6.69000
C  12.25000   32.53369   6.69000
C  9.80000   31.11918   3.34500
C  9.80000   33.94820   3.34500
C  9.80000   33.94820   6.69000
C  12.25000   35.36270   3.34500
C  12.25000   38.19172   3.34500
C  12.25000   38.19172  6.69000
C  9.80000   36.77721   6.69000
C  12.25000   41.02074   6.69000
C  9.80000   39.60623   3.34500
C  14.70000   8.48705   3.34500
C  14.70000   8.48705   6.69000
C  17.15000   9.90156   3.34500
C  17.15000   12.73057   3.34500
C  17.15000   12.73057  6.69000
C  14.70000   11.31607   6.69000
C  17.15000   15.55959   6.69000
C  14.70000   14.14508   3.34500
C  14.70000   16.97410   3.34500
C  14.70000   16.97410   6.69000
C  17.15000   18.38861   3.34500
C  17.15000   21.21762   3.34500
C  17.15000   21.21762  6.69000
C  14.70000   19.80311   6.69000
C  17.15000   24.04664   6.69000
C  14.70000   22.63213   3.34500
C  14.70000   25.46115   3.34500
C  14.70000   25.46115   6.69000
C  17.15000   26.87566   3.34500
C  17.15000   29.70467   3.34500
C  17.15000   29.70467  6.69000
C  14.70000   28.29016   6.69000
C  17.15000   32.53369   6.69000
C  14.70000   31.11918   3.34500
C  14.70000   33.94820   3.34500
C  14.70000   33.94820   6.69000
C  17.15000   35.36270   3.34500
C  17.15000   38.19172   3.34500
C  17.15000   38.19172  6.69000
C  14.70000   36.77721   6.69000
C  17.15000   41.02074   6.69000
C  14.70000   39.60623   3.34500
C  19.60000   8.48705   3.34500
C  19.60000   8.48705   6.69000
C  22.05000   9.90156   3.34500
C  22.05000   12.73057   3.34500
C  22.05000   12.73057  6.69000
C  19.60000   11.31607   6.69000
C  22.05000   15.55959   6.69000
C  19.60000   14.14508   3.34500
C  19.60000   16.97410   3.34500
C  19.60000   16.97410   6.69000
C  22.05000   18.38861   3.34500
C  22.05000   21.21762   3.34500
C  22.05000   21.21762  6.69000
C  19.60000   19.80311   6.69000
C  22.05000   24.04664   6.69000
C  19.60000   22.63213   3.34500
C  19.60000   25.46115   3.34500
C  19.60000   25.46115   6.69000
C  22.05000   26.87566   3.34500
C  22.05000   29.70467   3.34500
C  22.05000   29.70467  6.69000
C  19.60000   28.29016   6.69000
C  22.05000   32.53369   6.69000
C  19.60000   31.11918   3.34500
C  19.60000   33.94820   3.34500
C  19.60000   33.94820   6.69000
C  22.05000   35.36270   3.34500
C  22.05000   38.19172   3.34500
C  22.05000   38.19172  6.69000
C  19.60000   36.77721   6.69000
C  22.05000   41.02074   6.69000
C  19.60000   39.60623   3.34500
C  4.90000   8.48705   10.03500
C  4.90000   8.48705   13.38000
C  7.35000   9.90156   10.03500
C  7.35000   12.73057   10.03500
C  7.35000   12.73057  13.38000
C  4.90000   11.31607   13.38000
C  7.35000   15.55959   13.38000
C  4.90000   14.14508   10.03500
C  4.90000   16.97410   10.03500
C  4.90000   16.97410   13.38000
C  7.35000   18.38861   10.03500
C  7.35000   21.21762   10.03500
C  7.35000   21.21762  13.38000
C  4.90000   19.80311   13.38000
C  7.35000   24.04664   13.38000
C  4.90000   22.63213   10.03500
C  4.90000   25.46115   10.03500
C  4.90000   25.46115   13.38000
C  7.35000   26.87566   10.03500
C  7.35000   29.70467   10.03500
C  7.35000   29.70467  13.38000
C  4.90000   28.29016   13.38000
C  7.35000   32.53369   13.38000
C  4.90000   31.11918   10.03500
C  4.90000   33.94820   10.03500
C  4.90000   33.94820   13.38000
C  7.35000   35.36270   10.03500
C  7.35000   38.19172   10.03500
C  7.35000   38.19172  13.38000
C  4.90000   36.77721   13.38000
C  7.35000   41.02074   13.38000
C  4.90000   39.60623   10.03500
C  9.80000   8.48705   10.03500
C  9.80000   8.48705   13.38000
C  12.25000   9.90156   10.03500
C  12.25000   12.73057   10.03500
C  12.25000   12.73057  13.38000
C  9.80000   11.31607   13.38000
C  12.25000   15.55959   13.38000
C  9.80000   14.14508   10.03500
C  9.80000   16.97410   10.03500
C  9.80000   16.97410   13.38000
C  12.25000   18.38861   10.03500
C  12.25000   21.21762   10.03500
C  12.25000   21.21762  13.38000
C  9.80000   19.80311   13.38000
C  12.25000   24.04664   13.38000
C  9.80000   22.63213   10.03500
C  9.80000   25.46115   10.03500
C  9.80000   25.46115   13.38000
C  12.25000   26.87566   10.03500
C  12.25000   29.70467   10.03500
C  12.25000   29.70467  13.38000
C  9.80000   28.29016   13.38000
C  12.25000   32.53369   13.38000
C  9.80000   31.11918   10.03500
C  9.80000   33.94820   10.03500
C  9.80000   33.94820   13.38000
C  12.25000   35.36270   10.03500
C  12.25000   38.19172   10.03500
C  12.25000   38.19172  13.38000
C  9.80000   36.77721   13.38000
C  12.25000   41.02074   13.38000
C  9.80000   39.60623   10.03500
C  14.70000   8.48705   10.03500
C  14.70000   8.48705   13.38000
C  17.15000   9.90156   10.03500
C  17.15000   12.73057   10.03500
C  17.15000   12.73057  13.38000
C  14.70000   11.31607   13.38000
C  17.15000   15.55959   13.38000
C  14.70000   14.14508   10.03500
C  14.70000   16.97410   10.03500
C  14.70000   16.97410   13.38000
C  17.15000   18.38861   10.03500
C  17.15000   21.21762   10.03500
C  17.15000   21.21762  13.38000
C  14.70000   19.80311   13.38000
C  17.15000   24.04664   13.38000
C  14.70000   22.63213   10.03500
C  14.70000   25.46115   10.03500
C  14.70000   25.46115   13.38000
C  17.15000   26.87566   10.03500
C  17.15000   29.70467   10.03500
C  17.15000   29.70467  13.38000
C  14.70000   28.29016   13.38000
C  17.15000   32.53369   13.38000
C  14.70000   31.11918   10.03500
C  14.70000   33.94820   10.03500
C  14.70000   33.94820   13.38000
C  17.15000   35.36270   10.03500
C  17.15000   38.19172   10.03500
C  17.15000   38.19172  13.38000
C  14.70000   36.77721   13.38000
C  17.15000   41.02074   13.38000
C  14.70000   39.60623   10.03500
C  19.60000   8.48705   10.03500
C  19.60000   8.48705   13.38000
C  22.05000   9.90156   10.03500
C  22.05000   12.73057   10.03500
C  22.05000   12.73057  13.38000
C  19.60000   11.31607   13.38000
C  22.05000   15.55959   13.38000
C  19.60000   14.14508   10.03500
C  19.60000   16.97410   10.03500
C  19.60000   16.97410   13.38000
C  22.05000   18.38861   10.03500
C  22.05000   21.21762   10.03500
C  22.05000   21.21762  13.38000
C  19.60000   19.80311   13.38000
C  22.05000   24.04664   13.38000
C  19.60000   22.63213   10.03500
C  19.60000   25.46115   10.03500
C  19.60000   25.46115   13.38000
C  22.05000   26.87566   10.03500
C  22.05000   29.70467   10.03500
C  22.05000   29.70467  13.38000
C  19.60000   28.29016   13.38000
C  22.05000   32.53369   13.38000
C  19.60000   31.11918   10.03500
C  19.60000   33.94820   10.03500
C  19.60000   33.94820   13.38000
C  22.05000   35.36270   10.03500
C  22.05000   38.19172   10.03500
C  22.05000   38.19172  13.38000
C  19.60000   36.77721   13.38000
C  22.05000   41.02074   13.38000
C  19.60000   39.60623   10.03500
